# A header describing this portion of the file
data_cif_Se-hP3

_chemical_name_mineral 'alpha-Selenium'
_chemical_formula_sum 'Se'

# Key-value pairs describing the unit cell (Å and °)
# Note the cell angles 90-90-120 indicate a hexagonal structure.
_cell_length_a    4.36620
_cell_length_b    4.36620
_cell_length_c    4.95360
_cell_angle_alpha 90.00000
_cell_angle_beta  90.00000
_cell_angle_gamma 120.00000

loop_
_space_group_symop_id
_space_group_symop_operation_xyz
1 x,y,z
2 -y,x-y,z+1/3
3 -x+y,-x,z+2/3
4 x-y,-y,-z+2/3
5 y,x,-z
6 -x,-x+y,-z+1/3

loop_
_atom_site_type_symbol
_atom_site_symmetry_multiplicity
_atom_site_Wyckoff_label
_atom_site_fract_x
_atom_site_fract_y
_atom_site_fract_z
Se   3 a 0.2254  0.0000  0.3333
